63
charge +1 Representative frame 2
C 1.866206 2.228634 -1.599704
H 2.020969 3.314481 -1.582177
C 3.276287 1.652205 -1.705414
H 3.888375 2.340446 -2.296719
H 3.705611 1.737711 -0.700582
C 3.276268 0.229084 -2.247426
H 4.300879 -0.154743 -2.189021
H 2.634263 -0.434040 -1.662997
C 2.939619 0.345758 -3.726204
H 2.505801 -0.559058 -4.167322
H 3.836776 0.659012 -4.265819
C 1.824238 1.354566 -3.953957
H 1.208267 0.962067 -4.766394
H 2.295373 2.281813 -4.298600
C 0.981810 1.833416 -2.780247
H 0.343057 0.987908 -2.499033
H 0.283133 2.639271 -3.019906
N -0.121759 2.452845 -0.126378
H -0.787738 1.782286 -0.522121
H -0.191009 3.320072 -0.657808
C 1.233000 1.855803 -0.260272
C 1.105692 0.365061 0.000424
O 0.194543 -0.278723 -0.531798
N 2.120527 -0.228666 0.600904
C 2.213649 -1.680081 0.799938
C 0.949696 -2.192768 1.483512
O 0.444676 -1.397485 2.266304
N 0.548263 -3.449546 1.284523
H 0.947359 -4.108423 0.620425
C -0.630042 -3.821452 2.036636
H -0.984899 -4.837642 1.831412
H -0.357309 -3.668142 3.079660
C -1.769186 -2.899439 1.700360
C -2.560062 -2.340905 2.702744
H -2.335816 -2.503733 3.750219
C -3.458285 -1.343778 2.376978
H -4.048036 -0.834577 3.127633
C -3.781052 -1.029750 1.059488
C -3.011500 -1.602341 0.052667
H -3.255751 -1.427734 -0.988062
C -2.014880 -2.503754 0.390551
H -1.400410 -2.984607 -0.361626
C -4.931983 -0.243776 0.592209
N -5.655431 -0.734912 -0.391332
H -6.428528 -0.260598 -0.828807
H -5.361627 -1.573474 -0.861619
N -5.142726 0.916909 1.155970
H -5.866255 1.517298 0.792167
H -4.384665 1.346369 1.720310
C 3.312623 -1.431730 1.845675
H 2.985395 -1.708979 2.843389
H 4.287538 -1.848602 1.611853
C 3.157064 0.080141 1.593553
H 4.103341 0.487780 1.242731
H 2.800190 0.598940 2.483228
C -0.775825 2.656180 1.185271
H -0.207049 1.990314 1.836056
H -0.667773 3.690398 1.503573
C -2.231058 2.193890 1.089253
O -2.973650 2.229922 2.104244
O -2.451916 1.647269 0.004073
H 1.858850 2.336225 0.492105
H 2.544806 -2.188866 -0.109574
